*SPEF "ieee 1481-1999"
*DESIGN "test_circuit"
*DATE "15:54:20 Thursday May 28, 2026"
*VENDOR "The OpenROAD Project"
*PROGRAM "OpenROAD"
*VERSION "edf00dff99f6c40d67a30c0e22a8191c5d2ed9d6"
*DESIGN_FLOW "NAME_SCOPE LOCAL" "PIN_CAP NONE"
*DIVIDER /
*DELIMITER :
*BUS_DELIMITER []
*T_UNIT 1 NS
*C_UNIT 1 PF
*R_UNIT 1 OHM
*L_UNIT 1 HENRY

*NAME_MAP
*1 A[0]
*2 A[1]
*3 A[2]
*4 A[3]
*5 B[0]
*6 B[1]
*7 B[2]
*8 B[3]
*11 match
*12 _00_
*13 _01_
*14 _02_
*15 _03_
*16 _04_
*17 _05_
*18 _06_
*19 _07_
*20 _08_
*21 _09_
*22 net1
*23 net2
*24 net3
*25 net4
*26 net5
*27 net6
*28 net7
*29 net8
*30 net9
*31 FILLER_0_23
*32 FILLER_0_3
*33 FILLER_1_12
*34 FILLER_1_6
*35 FILLER_2_20
*36 FILLER_2_3
*37 FILLER_3_17
*38 FILLER_3_21
*39 FILLER_3_6
*40 PHY_EDGE_ROW_0_Left_4
*41 PHY_EDGE_ROW_0_Right_0
*42 PHY_EDGE_ROW_1_Left_5
*43 PHY_EDGE_ROW_1_Right_1
*44 PHY_EDGE_ROW_2_Left_6
*45 PHY_EDGE_ROW_2_Right_2
*46 PHY_EDGE_ROW_3_Left_7
*47 PHY_EDGE_ROW_3_Right_3
*48 _10_
*49 _11_
*50 _12_
*51 _13_
*52 _14_
*53 _15_
*54 _16_
*55 _17_
*56 _18_
*57 _19_
*58 _20_
*59 input1
*60 input2
*61 input3
*62 input4
*63 input5
*64 input6
*65 input7
*66 input8
*67 output9

*PORTS
A[0] I
A[1] I
A[2] I
A[3] I
B[0] I
B[1] I
B[2] I
B[3] I
match O

*D_NET *1 0.000447947
*CONN
*P A[0] I
*I *59:A I *D sky130_fd_sc_hd__clkbuf_1
*CAP
1 A[0] 0.000188941
2 *59:A 0.000188941
3 *59:A *65:A 7.00642e-05
*RES
1 A[0] *59:A 18.1229 
*END

*D_NET *2 0.00252322
*CONN
*P A[1] I
*I *60:A I *D sky130_fd_sc_hd__clkbuf_1
*CAP
1 A[1] 0.000934414
2 *60:A 0.000934414
3 *60:A *51:A 9.17418e-05
4 *60:A *51:B 0.000212306
5 *60:A *52:B1 5.65955e-05
6 *60:A *63:A 0.000140002
7 *60:A *23:8 0.000134108
8 *60:A *27:8 1.96442e-05
*RES
1 A[1] *60:A 31.8722 
*END

*D_NET *3 0.000704642
*CONN
*P A[2] I
*I *61:A I *D sky130_fd_sc_hd__clkbuf_1
*CAP
1 A[2] 0.000325054
2 *61:A 0.000325054
3 *61:A *62:A 2.25951e-05
4 *61:A *63:A 0
5 *61:A *64:A 3.19385e-05
*RES
1 A[2] *61:A 21.6946 
*END

*D_NET *4 0.000738552
*CONN
*P A[3] I
*I *62:A I *D sky130_fd_sc_hd__clkbuf_1
*CAP
1 A[3] 0.000294358
2 *62:A 0.000294358
3 *62:A *66:A 0.000127241
4 *61:A *62:A 2.25951e-05
*RES
1 A[3] *62:A 21.0874 
*END

*D_NET *5 0.00258115
*CONN
*P B[0] I
*I *63:A I *D sky130_fd_sc_hd__clkbuf_1
*CAP
1 B[0] 0.000840091
2 *63:A 0.000840091
3 *63:A *52:A1 0
4 *63:A *52:A2 0.000156243
5 *63:A *56:A 0.000128589
6 *63:A *56:B 5.49544e-05
7 *63:A *57:B2 1.34548e-05
8 *63:A *64:A 8.00323e-05
9 *63:A *66:A 0.000175251
10 *63:A *25:12 0.00015244
11 *60:A *63:A 0.000140002
12 *61:A *63:A 0
*RES
1 B[0] *63:A 32.8014 
*END

*D_NET *6 0.00226414
*CONN
*P B[1] I
*I *64:A I *D sky130_fd_sc_hd__clkbuf_1
*CAP
1 B[1] 0.00102002
2 *64:A 0.00102002
3 *64:A *58:A 0.000112134
4 *61:A *64:A 3.19385e-05
5 *63:A *64:A 8.00323e-05
*RES
1 B[1] *64:A 21.6015 
*END

*D_NET *7 0.000455738
*CONN
*P B[2] I
*I *65:A I *D sky130_fd_sc_hd__clkbuf_1
*CAP
1 B[2] 0.000157175
2 *65:A 0.000157175
3 *65:A match 6.36075e-05
4 *65:A *58:B 7.7159e-06
5 *59:A *65:A 7.00642e-05
*RES
1 B[2] *65:A 18.1229 
*END

*D_NET *8 0.0017495
*CONN
*P B[3] I
*I *66:A I *D sky130_fd_sc_hd__clkbuf_1
*CAP
1 B[3] 0.000560859
2 *66:A 0.000560859
3 *66:A *56:A 9.84229e-05
4 *66:A *56:B 5.49544e-05
5 *66:A *57:B2 0.000143375
6 *66:A *25:12 2.85321e-05
7 *62:A *66:A 0.000127241
8 *63:A *66:A 0.000175251
*RES
1 B[3] *66:A 26.8001 
*END

*D_NET *11 0.000521619
*CONN
*P match O
*I *67:X O *D sky130_fd_sc_hd__buf_2
*CAP
1 match 0.000229006
2 *67:X 0.000229006
3 *65:A match 6.36075e-05
*RES
1 *67:X match 18.1949 
*END

*D_NET *12 0.000938534
*CONN
*I *52:A1 I *D sky130_fd_sc_hd__o22ai_1
*I *48:Y O *D sky130_fd_sc_hd__nor2_1
*CAP
1 *52:A1 0.000279588
2 *48:Y 0.000279588
3 *52:A1 *48:B 2.59355e-05
4 *52:A1 *49:A 1.21258e-05
5 *52:A1 *51:A 2.04825e-05
6 *52:A1 *52:A2 6.44164e-05
7 *52:A1 *55:A 5.5764e-05
8 *52:A1 *55:B 0.000124749
9 *52:A1 *56:A 7.58841e-05
10 *63:A *52:A1 0
*RES
1 *48:Y *52:A1 32.9214 
*END

*D_NET *13 0.00161668
*CONN
*I *52:A2 I *D sky130_fd_sc_hd__o22ai_1
*I *49:X O *D sky130_fd_sc_hd__and2_1
*CAP
1 *52:A2 0.000386061
2 *49:X 0.000386061
3 *52:A2 *48:B 3.50409e-05
4 *52:A2 *49:A 9.41642e-05
5 *52:A2 *51:A 2.44318e-05
6 *52:A2 *52:B2 9.60875e-05
7 *52:A2 *55:A 5.74242e-05
8 *52:A2 *56:A 0.000160074
9 *52:A2 *25:12 5.66943e-05
10 *52:A2 *29:18 9.99853e-05
11 *52:A1 *52:A2 6.44164e-05
12 *63:A *52:A2 0.000156243
*RES
1 *49:X *52:A2 36.225 
*END

*D_NET *14 0.000128014
*CONN
*I *52:B1 I *D sky130_fd_sc_hd__o22ai_1
*I *50:X O *D sky130_fd_sc_hd__and2_1
*CAP
1 *52:B1 7.41148e-06
2 *50:X 7.41148e-06
3 *52:B1 *51:B 5.65955e-05
4 *60:A *52:B1 5.65955e-05
*RES
1 *50:X *52:B1 19.1357 
*END

*D_NET *15 0.00036865
*CONN
*I *52:B2 I *D sky130_fd_sc_hd__o22ai_1
*I *51:Y O *D sky130_fd_sc_hd__nor2_1
*CAP
1 *52:B2 6.98027e-05
2 *51:Y 6.98027e-05
3 *52:B2 *51:A 9.60875e-05
4 *52:B2 *51:B 2.36643e-05
5 *52:B2 *58:A 1.32056e-05
6 *52:B2 *27:8 0
7 *52:A2 *52:B2 9.60875e-05
*RES
1 *51:Y *52:B2 20.3857 
*END

*D_NET *16 0.00111127
*CONN
*I *58:A I *D sky130_fd_sc_hd__nor2_1
*I *52:Y O *D sky130_fd_sc_hd__o22ai_1
*CAP
1 *58:A 0.000372886
2 *52:Y 0.000372886
3 *58:A *51:B 7.53605e-05
4 *58:A *23:8 2.36643e-05
5 *58:A *27:8 0.000141131
6 *52:B2 *58:A 1.32056e-05
7 *64:A *58:A 0.000112134
*RES
1 *52:Y *58:A 33.3679 
*END

*D_NET *17 0.000611285
*CONN
*I *57:A1 I *D sky130_fd_sc_hd__o22ai_1
*I *53:X O *D sky130_fd_sc_hd__and2_1
*CAP
1 *57:A1 0.000103884
2 *53:X 0.000103884
3 *57:A1 *53:A 5.86821e-06
4 *57:A1 *53:B 0.000196457
5 *57:A1 *57:A2 5.49544e-05
6 *57:A1 *57:B1 9.9129e-05
7 *57:A1 *58:B 1.47872e-05
8 *57:A1 *28:8 1.98839e-05
9 *57:A1 *29:18 1.24368e-05
*RES
1 *53:X *57:A1 30.6 
*END

*D_NET *18 0.000241884
*CONN
*I *57:A2 I *D sky130_fd_sc_hd__o22ai_1
*I *54:Y O *D sky130_fd_sc_hd__nor2_1
*CAP
1 *57:A2 3.25265e-05
2 *54:Y 3.25265e-05
3 *57:A2 *53:B 4.73286e-05
4 *57:A2 *58:B 7.45486e-05
5 *57:A1 *57:A2 5.49544e-05
*RES
1 *54:Y *57:A2 19.9571 
*END

*D_NET *19 0.000334212
*CONN
*I *57:B1 I *D sky130_fd_sc_hd__o22ai_1
*I *55:X O *D sky130_fd_sc_hd__and2_1
*CAP
1 *57:B1 0.000117542
2 *55:X 0.000117542
3 *57:A1 *57:B1 9.9129e-05
*RES
1 *55:X *57:B1 29.475 
*END

*D_NET *20 0.000700129
*CONN
*I *57:B2 I *D sky130_fd_sc_hd__o22ai_1
*I *56:Y O *D sky130_fd_sc_hd__nor2_1
*CAP
1 *57:B2 0.000154349
2 *56:Y 0.000154349
3 *57:B2 *26:10 3.99088e-05
4 *57:B2 *29:18 0.000194693
5 *63:A *57:B2 1.34548e-05
6 *66:A *57:B2 0.000143375
*RES
1 *56:Y *57:B2 31.3143 
*END

*D_NET *21 0.00108185
*CONN
*I *58:B I *D sky130_fd_sc_hd__nor2_1
*I *57:Y O *D sky130_fd_sc_hd__o22ai_1
*CAP
1 *58:B 0.000441412
2 *57:Y 0.000441412
3 *58:B *53:B 1.13883e-05
4 *58:B *67:A 4.10796e-05
5 *58:B *22:12 4.2381e-05
6 *58:B *28:8 7.1245e-06
7 *57:A1 *58:B 1.47872e-05
8 *57:A2 *58:B 7.45486e-05
9 *65:A *58:B 7.7159e-06
*RES
1 *57:Y *58:B 34.5464 
*END

*D_NET *22 0.00152172
*CONN
*I *54:B I *D sky130_fd_sc_hd__nor2_1
*I *53:B I *D sky130_fd_sc_hd__and2_1
*I *59:X O *D sky130_fd_sc_hd__clkbuf_1
*CAP
1 *54:B 0
2 *53:B 0.000192354
3 *59:X 0.00021348
4 *22:12 0.000405834
5 *53:B *53:A 0.000112878
6 *53:B *28:8 0.000224857
7 *22:12 *53:A 5.37741e-06
8 *22:12 *26:10 6.93855e-05
9 *57:A1 *53:B 0.000196457
10 *57:A2 *53:B 4.73286e-05
11 *58:B *53:B 1.13883e-05
12 *58:B *22:12 4.2381e-05
*RES
1 *59:X *22:12 21.6036 
2 *22:12 *53:B 23.3893 
3 *22:12 *54:B 9.3 
*END

*D_NET *23 0.00158571
*CONN
*I *50:A I *D sky130_fd_sc_hd__and2_1
*I *51:A I *D sky130_fd_sc_hd__nor2_1
*I *60:X O *D sky130_fd_sc_hd__clkbuf_1
*CAP
1 *50:A 0
2 *51:A 0.000431313
3 *60:X 7.67244e-05
4 *23:8 0.000508038
5 *51:A *51:B 6.75684e-05
6 *51:A *27:8 5.49544e-05
7 *23:8 *27:8 5.65955e-05
8 *52:A1 *51:A 2.04825e-05
9 *52:A2 *51:A 2.44318e-05
10 *52:B2 *51:A 9.60875e-05
11 *58:A *23:8 2.36643e-05
12 *60:A *51:A 9.17418e-05
13 *60:A *23:8 0.000134108
*RES
1 *60:X *23:8 11.4964 
2 *23:8 *51:A 24.5857 
3 *23:8 *50:A 9.3 
*END

*D_NET *24 0.00134052
*CONN
*I *56:A I *D sky130_fd_sc_hd__nor2_1
*I *55:A I *D sky130_fd_sc_hd__and2_1
*I *61:X O *D sky130_fd_sc_hd__clkbuf_1
*CAP
1 *56:A 0.000148581
2 *55:A 5.19572e-05
3 *61:X 5.04199e-05
4 *24:8 0.000250958
5 *56:A *56:B 0.000216936
6 *56:A *25:12 4.55128e-05
7 *52:A1 *55:A 5.5764e-05
8 *52:A1 *56:A 7.58841e-05
9 *52:A2 *55:A 5.74242e-05
10 *52:A2 *56:A 0.000160074
11 *63:A *56:A 0.000128589
12 *66:A *56:A 9.84229e-05
*RES
1 *61:X *24:8 14.3357 
2 *24:8 *55:A 15.0679 
3 *24:8 *56:A 19.1214 
*END

*D_NET *25 0.000830348
*CONN
*I *49:A I *D sky130_fd_sc_hd__and2_1
*I *48:A I *D sky130_fd_sc_hd__nor2_1
*I *62:X O *D sky130_fd_sc_hd__clkbuf_1
*CAP
1 *49:A 8.51225e-05
2 *48:A 0
3 *62:X 0.000108667
4 *25:12 0.000193789
5 *49:A *48:B 5.33005e-05
6 *52:A1 *49:A 1.21258e-05
7 *52:A2 *49:A 9.41642e-05
8 *52:A2 *25:12 5.66943e-05
9 *56:A *25:12 4.55128e-05
10 *63:A *25:12 0.00015244
11 *66:A *25:12 2.85321e-05
*RES
1 *62:X *25:12 20.7821 
2 *25:12 *48:A 9.3 
3 *25:12 *49:A 11.0857 
*END

*D_NET *26 0.00101623
*CONN
*I *54:A I *D sky130_fd_sc_hd__nor2_1
*I *53:A I *D sky130_fd_sc_hd__and2_1
*I *63:X O *D sky130_fd_sc_hd__clkbuf_1
*CAP
1 *54:A 0
2 *53:A 0.000263463
3 *63:X 0.000127941
4 *26:10 0.000391405
5 *53:B *53:A 0.000112878
6 *57:A1 *53:A 5.86821e-06
7 *57:B2 *26:10 3.99088e-05
8 *22:12 *53:A 5.37741e-06
9 *22:12 *26:10 6.93855e-05
*RES
1 *63:X *26:10 16.2821 
2 *26:10 *53:A 17.9071 
3 *26:10 *54:A 13.8 
*END

*D_NET *27 0.00101688
*CONN
*I *50:B I *D sky130_fd_sc_hd__and2_1
*I *51:B I *D sky130_fd_sc_hd__nor2_1
*I *64:X O *D sky130_fd_sc_hd__clkbuf_1
*CAP
1 *50:B 0
2 *51:B 8.84983e-05
3 *64:X 6.60304e-05
4 *27:8 0.000154529
5 *51:A *51:B 6.75684e-05
6 *51:A *27:8 5.49544e-05
7 *52:B1 *51:B 5.65955e-05
8 *52:B2 *51:B 2.36643e-05
9 *52:B2 *27:8 0
10 *58:A *51:B 7.53605e-05
11 *58:A *27:8 0.000141131
12 *60:A *51:B 0.000212306
13 *60:A *27:8 1.96442e-05
14 *23:8 *27:8 5.65955e-05
*RES
1 *64:X *27:8 11.3893 
2 *27:8 *51:B 13.6929 
3 *27:8 *50:B 9.3 
*END

*D_NET *28 0.00247899
*CONN
*I *56:B I *D sky130_fd_sc_hd__nor2_1
*I *55:B I *D sky130_fd_sc_hd__and2_1
*I *65:X O *D sky130_fd_sc_hd__clkbuf_1
*CAP
1 *56:B 0.0002722
2 *55:B 0.000108376
3 *65:X 0.000466099
4 *28:8 0.000846676
5 *28:8 *48:B 2.84109e-05
6 *28:8 *29:18 5.37648e-05
7 *52:A1 *55:B 0.000124749
8 *53:B *28:8 0.000224857
9 *56:A *56:B 0.000216936
10 *57:A1 *28:8 1.98839e-05
11 *58:B *28:8 7.1245e-06
12 *63:A *56:B 5.49544e-05
13 *66:A *56:B 5.49544e-05
*RES
1 *65:X *28:8 19.675 
2 *28:8 *55:B 15.9786 
3 *28:8 *56:B 19.5321 
*END

*D_NET *29 0.00109383
*CONN
*I *49:B I *D sky130_fd_sc_hd__and2_1
*I *48:B I *D sky130_fd_sc_hd__nor2_1
*I *66:X O *D sky130_fd_sc_hd__clkbuf_1
*CAP
1 *49:B 0
2 *48:B 5.4977e-05
3 *66:X 0.000240155
4 *29:18 0.000295132
5 *49:A *48:B 5.33005e-05
6 *52:A1 *48:B 2.59355e-05
7 *52:A2 *48:B 3.50409e-05
8 *52:A2 *29:18 9.99853e-05
9 *57:A1 *29:18 1.24368e-05
10 *57:B2 *29:18 0.000194693
11 *28:8 *48:B 2.84109e-05
12 *28:8 *29:18 5.37648e-05
*RES
1 *66:X *29:18 23.2107 
2 *29:18 *48:B 10.6571 
3 *29:18 *49:B 9.3 
*END

*D_NET *30 0.000179689
*CONN
*I *67:A I *D sky130_fd_sc_hd__buf_2
*I *58:Y O *D sky130_fd_sc_hd__nor2_1
*CAP
1 *67:A 6.93046e-05
2 *58:Y 6.93046e-05
3 *58:B *67:A 4.10796e-05
*RES
1 *58:Y *67:A 19.975 
*END
