*SPEF "ieee 1481-1999"
*DESIGN "tto_mux"
*DATE "12:57:19 Thursday June 25, 2026"
*VENDOR "The OpenROAD Project"
*PROGRAM "OpenROAD"
*VERSION "dcf36133a369abc8f3c5e5738cd4d82e4903c0e0"
*DESIGN_FLOW "NAME_SCOPE LOCAL" "PIN_CAP NONE"
*DIVIDER /
*DELIMITER :
*BUS_DELIMITER []
*T_UNIT 1 NS
*C_UNIT 1 PF
*R_UNIT 1 OHM
*L_UNIT 1 HENRY

*NAME_MAP
*1 A
*2 B
*3 S
*6 Y
*7 G1
*8 G2
*9 S_n
*10 net1
*11 net2
*12 net3
*13 net4
*14 FILLER_0_103
*15 FILLER_0_111
*16 FILLER_0_113
*17 FILLER_0_125
*18 FILLER_0_137
*19 FILLER_0_141
*20 FILLER_0_15
*21 FILLER_0_153
*22 FILLER_0_165
*23 FILLER_0_169
*24 FILLER_0_181
*25 FILLER_0_189
*26 FILLER_0_27
*27 FILLER_0_29
*28 FILLER_0_3
*29 FILLER_0_41
*30 FILLER_0_53
*31 FILLER_0_57
*32 FILLER_0_69
*33 FILLER_0_81
*34 FILLER_0_85
*35 FILLER_0_93
*36 FILLER_10_109
*37 FILLER_10_121
*38 FILLER_10_133
*39 FILLER_10_139
*40 FILLER_10_141
*41 FILLER_10_15
*42 FILLER_10_153
*43 FILLER_10_165
*44 FILLER_10_177
*45 FILLER_10_189
*46 FILLER_10_27
*47 FILLER_10_29
*48 FILLER_10_3
*49 FILLER_10_41
*50 FILLER_10_53
*51 FILLER_10_65
*52 FILLER_10_77
*53 FILLER_10_83
*54 FILLER_10_85
*55 FILLER_10_97
*56 FILLER_11_105
*57 FILLER_11_111
*58 FILLER_11_113
*59 FILLER_11_125
*60 FILLER_11_137
*61 FILLER_11_149
*62 FILLER_11_15
*63 FILLER_11_161
*64 FILLER_11_167
*65 FILLER_11_169
*66 FILLER_11_181
*67 FILLER_11_189
*68 FILLER_11_27
*69 FILLER_11_3
*70 FILLER_11_39
*71 FILLER_11_51
*72 FILLER_11_55
*73 FILLER_11_57
*74 FILLER_11_69
*75 FILLER_11_81
*76 FILLER_11_93
*77 FILLER_12_110
*78 FILLER_12_122
*79 FILLER_12_134
*80 FILLER_12_141
*81 FILLER_12_15
*82 FILLER_12_153
*83 FILLER_12_165
*84 FILLER_12_177
*85 FILLER_12_189
*86 FILLER_12_27
*87 FILLER_12_29
*88 FILLER_12_3
*89 FILLER_12_41
*90 FILLER_12_53
*91 FILLER_12_65
*92 FILLER_12_77
*93 FILLER_12_83
*94 FILLER_12_85
*95 FILLER_12_89
*96 FILLER_12_98
*97 FILLER_13_102
*98 FILLER_13_110
*99 FILLER_13_113
*100 FILLER_13_125
*101 FILLER_13_137
*102 FILLER_13_149
*103 FILLER_13_15
*104 FILLER_13_161
*105 FILLER_13_167
*106 FILLER_13_169
*107 FILLER_13_181
*108 FILLER_13_189
*109 FILLER_13_27
*110 FILLER_13_3
*111 FILLER_13_39
*112 FILLER_13_51
*113 FILLER_13_55
*114 FILLER_13_57
*115 FILLER_13_69
*116 FILLER_13_81
*117 FILLER_13_87
*118 FILLER_13_93
*119 FILLER_14_109
*120 FILLER_14_11
*121 FILLER_14_121
*122 FILLER_14_133
*123 FILLER_14_139
*124 FILLER_14_141
*125 FILLER_14_153
*126 FILLER_14_165
*127 FILLER_14_177
*128 FILLER_14_181
*129 FILLER_14_23
*130 FILLER_14_27
*131 FILLER_14_29
*132 FILLER_14_41
*133 FILLER_14_53
*134 FILLER_14_65
*135 FILLER_14_77
*136 FILLER_14_83
*137 FILLER_14_85
*138 FILLER_14_97
*139 FILLER_15_105
*140 FILLER_15_111
*141 FILLER_15_113
*142 FILLER_15_125
*143 FILLER_15_137
*144 FILLER_15_149
*145 FILLER_15_15
*146 FILLER_15_161
*147 FILLER_15_167
*148 FILLER_15_169
*149 FILLER_15_181
*150 FILLER_15_189
*151 FILLER_15_27
*152 FILLER_15_3
*153 FILLER_15_39
*154 FILLER_15_51
*155 FILLER_15_55
*156 FILLER_15_57
*157 FILLER_15_69
*158 FILLER_15_81
*159 FILLER_15_93
*160 FILLER_16_109
*161 FILLER_16_121
*162 FILLER_16_133
*163 FILLER_16_139
*164 FILLER_16_141
*165 FILLER_16_15
*166 FILLER_16_153
*167 FILLER_16_165
*168 FILLER_16_177
*169 FILLER_16_189
*170 FILLER_16_27
*171 FILLER_16_29
*172 FILLER_16_3
*173 FILLER_16_41
*174 FILLER_16_53
*175 FILLER_16_65
*176 FILLER_16_77
*177 FILLER_16_83
*178 FILLER_16_85
*179 FILLER_16_97
*180 FILLER_17_105
*181 FILLER_17_111
*182 FILLER_17_113
*183 FILLER_17_125
*184 FILLER_17_137
*185 FILLER_17_149
*186 FILLER_17_15
*187 FILLER_17_161
*188 FILLER_17_167
*189 FILLER_17_169
*190 FILLER_17_181
*191 FILLER_17_189
*192 FILLER_17_27
*193 FILLER_17_3
*194 FILLER_17_39
*195 FILLER_17_51
*196 FILLER_17_55
*197 FILLER_17_57
*198 FILLER_17_69
*199 FILLER_17_81
*200 FILLER_17_93
*201 FILLER_18_109
*202 FILLER_18_121
*203 FILLER_18_133
*204 FILLER_18_139
*205 FILLER_18_141
*206 FILLER_18_15
*207 FILLER_18_153
*208 FILLER_18_165
*209 FILLER_18_177
*210 FILLER_18_189
*211 FILLER_18_27
*212 FILLER_18_29
*213 FILLER_18_3
*214 FILLER_18_41
*215 FILLER_18_53
*216 FILLER_18_65
*217 FILLER_18_77
*218 FILLER_18_83
*219 FILLER_18_85
*220 FILLER_18_97
*221 FILLER_19_105
*222 FILLER_19_111
*223 FILLER_19_113
*224 FILLER_19_125
*225 FILLER_19_137
*226 FILLER_19_149
*227 FILLER_19_15
*228 FILLER_19_161
*229 FILLER_19_167
*230 FILLER_19_169
*231 FILLER_19_181
*232 FILLER_19_189
*233 FILLER_19_27
*234 FILLER_19_3
*235 FILLER_19_39
*236 FILLER_19_51
*237 FILLER_19_55
*238 FILLER_19_57
*239 FILLER_19_69
*240 FILLER_19_81
*241 FILLER_19_93
*242 FILLER_1_101
*243 FILLER_1_109
*244 FILLER_1_113
*245 FILLER_1_125
*246 FILLER_1_137
*247 FILLER_1_149
*248 FILLER_1_15
*249 FILLER_1_161
*250 FILLER_1_167
*251 FILLER_1_169
*252 FILLER_1_181
*253 FILLER_1_189
*254 FILLER_1_27
*255 FILLER_1_3
*256 FILLER_1_39
*257 FILLER_1_51
*258 FILLER_1_55
*259 FILLER_1_57
*260 FILLER_1_69
*261 FILLER_1_81
*262 FILLER_20_109
*263 FILLER_20_121
*264 FILLER_20_133
*265 FILLER_20_139
*266 FILLER_20_141
*267 FILLER_20_15
*268 FILLER_20_153
*269 FILLER_20_165
*270 FILLER_20_177
*271 FILLER_20_189
*272 FILLER_20_27
*273 FILLER_20_29
*274 FILLER_20_3
*275 FILLER_20_41
*276 FILLER_20_53
*277 FILLER_20_65
*278 FILLER_20_77
*279 FILLER_20_83
*280 FILLER_20_85
*281 FILLER_20_97
*282 FILLER_21_105
*283 FILLER_21_111
*284 FILLER_21_113
*285 FILLER_21_125
*286 FILLER_21_137
*287 FILLER_21_149
*288 FILLER_21_15
*289 FILLER_21_161
*290 FILLER_21_167
*291 FILLER_21_169
*292 FILLER_21_181
*293 FILLER_21_189
*294 FILLER_21_27
*295 FILLER_21_3
*296 FILLER_21_39
*297 FILLER_21_51
*298 FILLER_21_55
*299 FILLER_21_57
*300 FILLER_21_69
*301 FILLER_21_81
*302 FILLER_21_93
*303 FILLER_22_109
*304 FILLER_22_121
*305 FILLER_22_133
*306 FILLER_22_139
*307 FILLER_22_141
*308 FILLER_22_15
*309 FILLER_22_153
*310 FILLER_22_165
*311 FILLER_22_177
*312 FILLER_22_189
*313 FILLER_22_27
*314 FILLER_22_29
*315 FILLER_22_3
*316 FILLER_22_41
*317 FILLER_22_53
*318 FILLER_22_65
*319 FILLER_22_77
*320 FILLER_22_83
*321 FILLER_22_85
*322 FILLER_22_97
*323 FILLER_23_105
*324 FILLER_23_111
*325 FILLER_23_113
*326 FILLER_23_125
*327 FILLER_23_137
*328 FILLER_23_149
*329 FILLER_23_15
*330 FILLER_23_161
*331 FILLER_23_167
*332 FILLER_23_169
*333 FILLER_23_181
*334 FILLER_23_189
*335 FILLER_23_27
*336 FILLER_23_3
*337 FILLER_23_39
*338 FILLER_23_51
*339 FILLER_23_55
*340 FILLER_23_57
*341 FILLER_23_69
*342 FILLER_23_81
*343 FILLER_23_93
*344 FILLER_24_109
*345 FILLER_24_121
*346 FILLER_24_133
*347 FILLER_24_139
*348 FILLER_24_141
*349 FILLER_24_15
*350 FILLER_24_153
*351 FILLER_24_165
*352 FILLER_24_177
*353 FILLER_24_189
*354 FILLER_24_27
*355 FILLER_24_29
*356 FILLER_24_3
*357 FILLER_24_41
*358 FILLER_24_53
*359 FILLER_24_65
*360 FILLER_24_77
*361 FILLER_24_83
*362 FILLER_24_85
*363 FILLER_24_97
*364 FILLER_25_105
*365 FILLER_25_111
*366 FILLER_25_113
*367 FILLER_25_125
*368 FILLER_25_137
*369 FILLER_25_149
*370 FILLER_25_15
*371 FILLER_25_161
*372 FILLER_25_167
*373 FILLER_25_169
*374 FILLER_25_181
*375 FILLER_25_189
*376 FILLER_25_27
*377 FILLER_25_3
*378 FILLER_25_39
*379 FILLER_25_51
*380 FILLER_25_55
*381 FILLER_25_57
*382 FILLER_25_69
*383 FILLER_25_81
*384 FILLER_25_93
*385 FILLER_26_109
*386 FILLER_26_121
*387 FILLER_26_133
*388 FILLER_26_139
*389 FILLER_26_141
*390 FILLER_26_15
*391 FILLER_26_153
*392 FILLER_26_165
*393 FILLER_26_177
*394 FILLER_26_189
*395 FILLER_26_27
*396 FILLER_26_29
*397 FILLER_26_3
*398 FILLER_26_41
*399 FILLER_26_53
*400 FILLER_26_65
*401 FILLER_26_77
*402 FILLER_26_83
*403 FILLER_26_85
*404 FILLER_26_97
*405 FILLER_27_109
*406 FILLER_27_113
*407 FILLER_27_125
*408 FILLER_27_137
*409 FILLER_27_141
*410 FILLER_27_15
*411 FILLER_27_153
*412 FILLER_27_165
*413 FILLER_27_169
*414 FILLER_27_181
*415 FILLER_27_189
*416 FILLER_27_27
*417 FILLER_27_29
*418 FILLER_27_3
*419 FILLER_27_41
*420 FILLER_27_53
*421 FILLER_27_57
*422 FILLER_27_69
*423 FILLER_27_81
*424 FILLER_27_85
*425 FILLER_27_97
*426 FILLER_2_109
*427 FILLER_2_121
*428 FILLER_2_133
*429 FILLER_2_139
*430 FILLER_2_141
*431 FILLER_2_15
*432 FILLER_2_153
*433 FILLER_2_165
*434 FILLER_2_177
*435 FILLER_2_189
*436 FILLER_2_27
*437 FILLER_2_29
*438 FILLER_2_3
*439 FILLER_2_41
*440 FILLER_2_53
*441 FILLER_2_65
*442 FILLER_2_77
*443 FILLER_2_83
*444 FILLER_2_85
*445 FILLER_2_97
*446 FILLER_3_105
*447 FILLER_3_111
*448 FILLER_3_113
*449 FILLER_3_125
*450 FILLER_3_137
*451 FILLER_3_149
*452 FILLER_3_15
*453 FILLER_3_161
*454 FILLER_3_167
*455 FILLER_3_169
*456 FILLER_3_181
*457 FILLER_3_189
*458 FILLER_3_27
*459 FILLER_3_3
*460 FILLER_3_39
*461 FILLER_3_51
*462 FILLER_3_55
*463 FILLER_3_57
*464 FILLER_3_69
*465 FILLER_3_81
*466 FILLER_3_93
*467 FILLER_4_109
*468 FILLER_4_121
*469 FILLER_4_133
*470 FILLER_4_139
*471 FILLER_4_141
*472 FILLER_4_15
*473 FILLER_4_153
*474 FILLER_4_165
*475 FILLER_4_177
*476 FILLER_4_189
*477 FILLER_4_27
*478 FILLER_4_29
*479 FILLER_4_3
*480 FILLER_4_41
*481 FILLER_4_53
*482 FILLER_4_65
*483 FILLER_4_77
*484 FILLER_4_83
*485 FILLER_4_85
*486 FILLER_4_97
*487 FILLER_5_105
*488 FILLER_5_111
*489 FILLER_5_113
*490 FILLER_5_125
*491 FILLER_5_137
*492 FILLER_5_149
*493 FILLER_5_15
*494 FILLER_5_161
*495 FILLER_5_167
*496 FILLER_5_169
*497 FILLER_5_181
*498 FILLER_5_189
*499 FILLER_5_27
*500 FILLER_5_3
*501 FILLER_5_39
*502 FILLER_5_51
*503 FILLER_5_55
*504 FILLER_5_57
*505 FILLER_5_69
*506 FILLER_5_81
*507 FILLER_5_93
*508 FILLER_6_109
*509 FILLER_6_121
*510 FILLER_6_133
*511 FILLER_6_139
*512 FILLER_6_141
*513 FILLER_6_15
*514 FILLER_6_153
*515 FILLER_6_165
*516 FILLER_6_177
*517 FILLER_6_189
*518 FILLER_6_27
*519 FILLER_6_29
*520 FILLER_6_3
*521 FILLER_6_41
*522 FILLER_6_53
*523 FILLER_6_65
*524 FILLER_6_77
*525 FILLER_6_83
*526 FILLER_6_85
*527 FILLER_6_97
*528 FILLER_7_105
*529 FILLER_7_111
*530 FILLER_7_113
*531 FILLER_7_125
*532 FILLER_7_137
*533 FILLER_7_149
*534 FILLER_7_15
*535 FILLER_7_161
*536 FILLER_7_167
*537 FILLER_7_169
*538 FILLER_7_181
*539 FILLER_7_189
*540 FILLER_7_27
*541 FILLER_7_3
*542 FILLER_7_39
*543 FILLER_7_51
*544 FILLER_7_55
*545 FILLER_7_57
*546 FILLER_7_69
*547 FILLER_7_81
*548 FILLER_7_93
*549 FILLER_8_109
*550 FILLER_8_121
*551 FILLER_8_133
*552 FILLER_8_139
*553 FILLER_8_141
*554 FILLER_8_15
*555 FILLER_8_153
*556 FILLER_8_165
*557 FILLER_8_177
*558 FILLER_8_189
*559 FILLER_8_27
*560 FILLER_8_29
*561 FILLER_8_3
*562 FILLER_8_41
*563 FILLER_8_53
*564 FILLER_8_65
*565 FILLER_8_77
*566 FILLER_8_83
*567 FILLER_8_85
*568 FILLER_8_97
*569 FILLER_9_105
*570 FILLER_9_111
*571 FILLER_9_113
*572 FILLER_9_125
*573 FILLER_9_137
*574 FILLER_9_149
*575 FILLER_9_15
*576 FILLER_9_161
*577 FILLER_9_167
*578 FILLER_9_169
*579 FILLER_9_181
*580 FILLER_9_189
*581 FILLER_9_27
*582 FILLER_9_3
*583 FILLER_9_39
*584 FILLER_9_51
*585 FILLER_9_55
*586 FILLER_9_57
*587 FILLER_9_69
*588 FILLER_9_81
*589 FILLER_9_93
*590 PHY_EDGE_ROW_0_Left_28
*591 PHY_EDGE_ROW_0_Right_0
*592 PHY_EDGE_ROW_10_Left_38
*593 PHY_EDGE_ROW_10_Right_10
*594 PHY_EDGE_ROW_11_Left_39
*595 PHY_EDGE_ROW_11_Right_11
*596 PHY_EDGE_ROW_12_Left_40
*597 PHY_EDGE_ROW_12_Right_12
*598 PHY_EDGE_ROW_13_Left_41
*599 PHY_EDGE_ROW_13_Right_13
*600 PHY_EDGE_ROW_14_Left_42
*601 PHY_EDGE_ROW_14_Right_14
*602 PHY_EDGE_ROW_15_Left_43
*603 PHY_EDGE_ROW_15_Right_15
*604 PHY_EDGE_ROW_16_Left_44
*605 PHY_EDGE_ROW_16_Right_16
*606 PHY_EDGE_ROW_17_Left_45
*607 PHY_EDGE_ROW_17_Right_17
*608 PHY_EDGE_ROW_18_Left_46
*609 PHY_EDGE_ROW_18_Right_18
*610 PHY_EDGE_ROW_19_Left_47
*611 PHY_EDGE_ROW_19_Right_19
*612 PHY_EDGE_ROW_1_Left_29
*613 PHY_EDGE_ROW_1_Right_1
*614 PHY_EDGE_ROW_20_Left_48
*615 PHY_EDGE_ROW_20_Right_20
*616 PHY_EDGE_ROW_21_Left_49
*617 PHY_EDGE_ROW_21_Right_21
*618 PHY_EDGE_ROW_22_Left_50
*619 PHY_EDGE_ROW_22_Right_22
*620 PHY_EDGE_ROW_23_Left_51
*621 PHY_EDGE_ROW_23_Right_23
*622 PHY_EDGE_ROW_24_Left_52
*623 PHY_EDGE_ROW_24_Right_24
*624 PHY_EDGE_ROW_25_Left_53
*625 PHY_EDGE_ROW_25_Right_25
*626 PHY_EDGE_ROW_26_Left_54
*627 PHY_EDGE_ROW_26_Right_26
*628 PHY_EDGE_ROW_27_Left_55
*629 PHY_EDGE_ROW_27_Right_27
*630 PHY_EDGE_ROW_2_Left_30
*631 PHY_EDGE_ROW_2_Right_2
*632 PHY_EDGE_ROW_3_Left_31
*633 PHY_EDGE_ROW_3_Right_3
*634 PHY_EDGE_ROW_4_Left_32
*635 PHY_EDGE_ROW_4_Right_4
*636 PHY_EDGE_ROW_5_Left_33
*637 PHY_EDGE_ROW_5_Right_5
*638 PHY_EDGE_ROW_6_Left_34
*639 PHY_EDGE_ROW_6_Right_6
*640 PHY_EDGE_ROW_7_Left_35
*641 PHY_EDGE_ROW_7_Right_7
*642 PHY_EDGE_ROW_8_Left_36
*643 PHY_EDGE_ROW_8_Right_8
*644 PHY_EDGE_ROW_9_Left_37
*645 PHY_EDGE_ROW_9_Right_9
*646 TAP_TAPCELL_ROW_0_56
*647 TAP_TAPCELL_ROW_0_57
*648 TAP_TAPCELL_ROW_0_58
*649 TAP_TAPCELL_ROW_0_59
*650 TAP_TAPCELL_ROW_0_60
*651 TAP_TAPCELL_ROW_0_61
*652 TAP_TAPCELL_ROW_10_89
*653 TAP_TAPCELL_ROW_10_90
*654 TAP_TAPCELL_ROW_10_91
*655 TAP_TAPCELL_ROW_11_92
*656 TAP_TAPCELL_ROW_11_93
*657 TAP_TAPCELL_ROW_11_94
*658 TAP_TAPCELL_ROW_12_95
*659 TAP_TAPCELL_ROW_12_96
*660 TAP_TAPCELL_ROW_12_97
*661 TAP_TAPCELL_ROW_13_100
*662 TAP_TAPCELL_ROW_13_98
*663 TAP_TAPCELL_ROW_13_99
*664 TAP_TAPCELL_ROW_14_101
*665 TAP_TAPCELL_ROW_14_102
*666 TAP_TAPCELL_ROW_14_103
*667 TAP_TAPCELL_ROW_15_104
*668 TAP_TAPCELL_ROW_15_105
*669 TAP_TAPCELL_ROW_15_106
*670 TAP_TAPCELL_ROW_16_107
*671 TAP_TAPCELL_ROW_16_108
*672 TAP_TAPCELL_ROW_16_109
*673 TAP_TAPCELL_ROW_17_110
*674 TAP_TAPCELL_ROW_17_111
*675 TAP_TAPCELL_ROW_17_112
*676 TAP_TAPCELL_ROW_18_113
*677 TAP_TAPCELL_ROW_18_114
*678 TAP_TAPCELL_ROW_18_115
*679 TAP_TAPCELL_ROW_19_116
*680 TAP_TAPCELL_ROW_19_117
*681 TAP_TAPCELL_ROW_19_118
*682 TAP_TAPCELL_ROW_1_62
*683 TAP_TAPCELL_ROW_1_63
*684 TAP_TAPCELL_ROW_1_64
*685 TAP_TAPCELL_ROW_20_119
*686 TAP_TAPCELL_ROW_20_120
*687 TAP_TAPCELL_ROW_20_121
*688 TAP_TAPCELL_ROW_21_122
*689 TAP_TAPCELL_ROW_21_123
*690 TAP_TAPCELL_ROW_21_124
*691 TAP_TAPCELL_ROW_22_125
*692 TAP_TAPCELL_ROW_22_126
*693 TAP_TAPCELL_ROW_22_127
*694 TAP_TAPCELL_ROW_23_128
*695 TAP_TAPCELL_ROW_23_129
*696 TAP_TAPCELL_ROW_23_130
*697 TAP_TAPCELL_ROW_24_131
*698 TAP_TAPCELL_ROW_24_132
*699 TAP_TAPCELL_ROW_24_133
*700 TAP_TAPCELL_ROW_25_134
*701 TAP_TAPCELL_ROW_25_135
*702 TAP_TAPCELL_ROW_25_136
*703 TAP_TAPCELL_ROW_26_137
*704 TAP_TAPCELL_ROW_26_138
*705 TAP_TAPCELL_ROW_26_139
*706 TAP_TAPCELL_ROW_27_140
*707 TAP_TAPCELL_ROW_27_141
*708 TAP_TAPCELL_ROW_27_142
*709 TAP_TAPCELL_ROW_27_143
*710 TAP_TAPCELL_ROW_27_144
*711 TAP_TAPCELL_ROW_27_145
*712 TAP_TAPCELL_ROW_2_65
*713 TAP_TAPCELL_ROW_2_66
*714 TAP_TAPCELL_ROW_2_67
*715 TAP_TAPCELL_ROW_3_68
*716 TAP_TAPCELL_ROW_3_69
*717 TAP_TAPCELL_ROW_3_70
*718 TAP_TAPCELL_ROW_4_71
*719 TAP_TAPCELL_ROW_4_72
*720 TAP_TAPCELL_ROW_4_73
*721 TAP_TAPCELL_ROW_5_74
*722 TAP_TAPCELL_ROW_5_75
*723 TAP_TAPCELL_ROW_5_76
*724 TAP_TAPCELL_ROW_6_77
*725 TAP_TAPCELL_ROW_6_78
*726 TAP_TAPCELL_ROW_6_79
*727 TAP_TAPCELL_ROW_7_80
*728 TAP_TAPCELL_ROW_7_81
*729 TAP_TAPCELL_ROW_7_82
*730 TAP_TAPCELL_ROW_8_83
*731 TAP_TAPCELL_ROW_8_84
*732 TAP_TAPCELL_ROW_8_85
*733 TAP_TAPCELL_ROW_9_86
*734 TAP_TAPCELL_ROW_9_87
*735 TAP_TAPCELL_ROW_9_88
*736 U_AND1
*737 U_AND2
*738 U_INV
*739 U_OR
*740 input1
*741 input2
*742 input3
*743 output4

*PORTS
A I
B I
S I
Y O

*D_NET *1 0.00159773
*CONN
*P A I
*I *740:A I *D sky130_fd_sc_hd__clkdlybuf4s25_1
*CAP
1 A 0.000553253
2 *740:A 0.000553253
3 *740:A *742:A 0.000491224
4 *740:A *12:10 0
*RES
1 A *740:A 27.7821 
*END

*D_NET *2 0.000822287
*CONN
*P B I
*I *741:A I *D sky130_fd_sc_hd__clkdlybuf4s25_1
*CAP
1 B 0.000411144
2 *741:A 0.000411144
*RES
1 B *741:A 21.683 
*END

*D_NET *3 0.00130008
*CONN
*P S I
*I *742:A I *D sky130_fd_sc_hd__clkdlybuf4s25_1
*CAP
1 S 0.000404429
2 *742:A 0.000404429
3 *740:A *742:A 0.000491224
*RES
1 S *742:A 25.05 
*END

*D_NET *6 0.00075389
*CONN
*P Y O
*I *743:X O *D sky130_fd_sc_hd__clkdlybuf4s25_1
*CAP
1 Y 0.000376945
2 *743:X 0.000376945
3 Y *13:10 0
*RES
1 *743:X Y 18.6273 
*END

*D_NET *7 0.000401947
*CONN
*I *739:A I *D sky130_fd_sc_hd__or2_1
*I *736:X O *D sky130_fd_sc_hd__and2_1
*CAP
1 *739:A 0.000174664
2 *736:X 0.000174664
3 *739:A *12:10 5.26184e-05
*RES
1 *736:X *739:A 30.4929 
*END

*D_NET *8 0.000414352
*CONN
*I *739:B I *D sky130_fd_sc_hd__or2_1
*I *737:X O *D sky130_fd_sc_hd__and2_1
*CAP
1 *739:B 0.000156077
2 *737:X 0.000156077
3 *739:B *12:14 0.000102197
*RES
1 *737:X *739:B 21.5107 
*END

*D_NET *9 0.000358082
*CONN
*I *736:B I *D sky130_fd_sc_hd__and2_1
*I *738:Y O *D sky130_fd_sc_hd__inv_1
*CAP
1 *736:B 0.000179041
2 *738:Y 0.000179041
*RES
1 *738:Y *736:B 20.8946 
*END

*D_NET *10 0.00361718
*CONN
*I *736:A I *D sky130_fd_sc_hd__and2_1
*I *740:X O *D sky130_fd_sc_hd__clkdlybuf4s25_1
*CAP
1 *736:A 0
2 *740:X 0.00125384
3 *10:12 0.00125384
4 *10:12 *12:10 0.0011095
*RES
1 *740:X *10:12 46.8179 
2 *10:12 *736:A 9.3 
*END

*D_NET *11 0.00537465
*CONN
*I *737:A I *D sky130_fd_sc_hd__and2_1
*I *741:X O *D sky130_fd_sc_hd__clkdlybuf4s25_1
*CAP
1 *737:A 0.000449878
2 *741:X 0.00223745
3 *11:12 0.00268732
*RES
1 *741:X *11:12 44.7107 
2 *11:12 *737:A 16.8179 
*END

*D_NET *12 0.0048629
*CONN
*I *737:B I *D sky130_fd_sc_hd__and2_1
*I *738:A I *D sky130_fd_sc_hd__inv_1
*I *742:X O *D sky130_fd_sc_hd__clkdlybuf4s25_1
*CAP
1 *737:B 0
2 *738:A 0.000165413
3 *742:X 0.00150271
4 *12:14 0.000296581
5 *12:10 0.00163388
6 *739:A *12:10 5.26184e-05
7 *739:B *12:14 0.000102197
8 *740:A *12:10 0
9 *10:12 *12:10 0.0011095
*RES
1 *742:X *12:10 47.4786 
2 *12:10 *12:14 7.08929 
3 *12:14 *738:A 21.4384 
4 *12:14 *737:B 9.3 
*END

*D_NET *13 0.00455698
*CONN
*I *743:A I *D sky130_fd_sc_hd__clkdlybuf4s25_1
*I *739:X O *D sky130_fd_sc_hd__or2_1
*CAP
1 *743:A 0
2 *739:X 0.00227849
3 *13:10 0.00227849
4 Y *13:10 0
*RES
1 *739:X *13:10 49.1393 
2 *13:10 *743:A 13.8 
*END
